@<TRIPOS>MOLECULE
LIG
   26    28     1     0     0
SMALL
bcc


@<TRIPOS>ATOM
      1 C          105.6760   105.0150   128.2960 c1         1 LIG       0.094000
      2 C1         103.5140   105.6110   129.5250 c2         1 LIG       0.387000
      3 C2         103.3860   106.7990   128.5550 c1         1 LIG      -0.311000
      4 C3         104.7320   107.2240   127.9660 c1         1 LIG       0.094000
      5 C4         104.3820   104.4950   128.9260 c1         1 LIG      -0.311000
      6 N          105.3840   106.0690   127.3130 nx         1 LIG      -0.041000
      7 H          104.7300   105.7020   126.6220 hn         1 LIG       0.322000
      8 C5         101.2420   104.6460   129.0620 c2         1 LIG       0.523000
      9 N1         102.1960   105.1330   130.0180 n          1 LIG      -0.092000
     10 O          101.5990   104.0220   128.0820 o          1 LIG      -0.223000
     11 C6         101.8800   105.1370   131.4760 c2         1 LIG       0.073000
     12 C7         101.9890   103.9010   132.1080 c1         1 LIG       0.186000
     13 C8         101.7260   103.7510   133.4590 c1         1 LIG      -0.285500
     14 C9         101.2290   106.0950   133.5940 c1         1 LIG      -0.285500
     15 C10        101.3450   104.8550   134.2010 c1         1 LIG       0.281000
     16 C11        101.4960   106.2280   132.2390 c1         1 LIG       0.186000
     17 C12         99.7220   104.8580   129.1830 c1         1 LIG      -0.686000
     18 C13         99.0200   104.4530   127.8710 c1         1 LIG       0.389000
     19 C14        106.6080   106.4620   126.5930 c1         1 LIG       0.189000
     20 C15        107.2950   105.2770   125.9190 c1         1 LIG      -0.232000
     21 C16        107.8430   106.2270   123.6480 c1         1 LIG       0.069500
     22 C17        106.6840   105.4800   121.7040 c1         1 LIG       0.271000
     23 C18        107.0800   105.3530   124.4060 c2         1 LIG       0.318000
     24 C19        107.6410   106.2850   122.2850 c1         1 LIG       0.008000
     25 C20        105.9240   104.6130   122.4500 c1         1 LIG       0.008000
     26 C21        106.1230   104.5510   123.8160 c1         1 LIG       0.069500
@<TRIPOS>BOND
     1     1     5 1   
     2     1     6 1   
     3     2     3 1   
     4     2     5 1   
     5     2     9 1   
     6     3     4 1   
     7     4     6 1   
     8     6     7 1   
     9     6    19 1   
    10     8     9 1   
    11     8    10 1   
    12     8    17 1   
    13     9    11 1   
    14    11    12 1   
    15    11    16 1   
    16    12    13 1   
    17    13    15 1   
    18    14    15 1   
    19    14    16 1   
    20    17    18 1   
    21    19    20 1   
    22    20    23 1   
    23    21    23 1   
    24    21    24 1   
    25    22    24 1   
    26    22    25 1   
    27    23    26 1   
    28    25    26 1   
@<TRIPOS>SUBSTRUCTURE
     1 LIG         1 TEMP              0 ****  ****    0 ROOT
